LYS_A_301
scProtoss 10052612073D 1   1.00000     0.00000     0
Protoss beta schulze
 25 24  0  0  0  0            999 V2000
  -18.0730   65.6510   30.0230 N   0  3  0  0  0  0  0  0  0  0  0  0
  -16.6650   65.5820   30.4280 C   0  0  2  0  0  0  0  0  0  0  0  0
  -16.4500   64.5910   31.5820 C   0  0  0  0  0  0  0  0  0  0  0  0
  -15.3120   64.3340   32.0260 O   0  0  0  0  0  0  0  0  0  0  0  0
  -16.1330   66.9730   30.8200 C   0  0  0  0  0  0  0  0  0  0  0  0
  -15.6860   67.8510   29.5980 C   0  0  0  0  0  0  0  0  0  0  0  0
  -15.2220   69.2610   30.0660 C   0  0  0  0  0  0  0  0  0  0  0  0
  -14.4570   70.0250   28.9570 C   0  0  0  0  0  0  0  0  0  0  0  0
  -15.3190   70.2410   27.7190 N   0  3  0  0  0  0  0  0  0  0  0  0
  -17.4040   63.9970   32.0690 O   0  5  0  0  0  0  0  0  0  0  0  0
  -18.2613   64.9368   29.3488 H   0  0  0  0  0  0  0  0  0  0  0  0
  -18.6571   65.5162   30.8234 H   0  0  0  0  0  0  0  0  0  0  0  0
  -16.1349   65.2600   29.6435 H   0  0  0  0  0  0  0  0  0  0  0  0
  -15.3456   66.8501   31.4241 H   0  0  0  0  0  0  0  0  0  0  0  0
  -16.8561   67.4600   31.3098 H   0  0  0  0  0  0  0  0  0  0  0  0
  -16.4564   67.9522   28.9686 H   0  0  0  0  0  0  0  0  0  0  0  0
  -14.9292   67.3967   29.1281 H   0  0  0  0  0  0  0  0  0  0  0  0
  -14.6203   69.1554   30.8577 H   0  0  0  0  0  0  0  0  0  0  0  0
  -16.0266   69.7941   30.3276 H   0  0  0  0  0  0  0  0  0  0  0  0
  -13.6478   69.4968   28.6996 H   0  0  0  0  0  0  0  0  0  0  0  0
  -14.1743   70.9154   29.3137 H   0  0  0  0  0  0  0  0  0  0  0  0
  -15.0398   71.0853   27.2616 H   0  0  0  0  0  0  0  0  0  0  0  0
  -15.2036   69.4692   27.0937 H   0  0  0  0  0  0  0  0  0  0  0  0
  -16.2793   70.3102   27.9894 H   0  0  0  0  0  0  0  0  0  0  0  0
  -18.2606   66.5470   29.6206 H   0  0  0  0  0  0  0  0  0  0  0  0
  1  2  1  0  0  0  0
  2  5  1  0  0  0  0
  2  3  1  0  0  0  0
  5  6  1  0  0  0  0
  6  7  1  0  0  0  0
  7  8  1  0  0  0  0
  8  9  1  0  0  0  0
  3  4  2  0  0  0  0
  3 10  1  0  0  0  0
  1 11  1  0  0  0  0
  1 12  1  0  0  0  0
  2 13  1  0  0  0  0
  5 14  1  0  0  0  0
  5 15  1  0  0  0  0
  6 16  1  0  0  0  0
  6 17  1  0  0  0  0
  7 18  1  0  0  0  0
  7 19  1  0  0  0  0
  8 20  1  0  0  0  0
  8 21  1  0  0  0  0
  9 22  1  0  0  0  0
  9 23  1  0  0  0  0
  9 24  1  0  0  0  0
  1 25  1  0  0  0  0
M  CHG  3   1   1   9   1  10  -1
M  END
$$$$
CL_A_303
scProtoss 10052612073D 1   1.00000     0.00000     0
Protoss beta schulze
  1  0  0  0  0  0            999 V2000
  -15.9940   65.3010   26.5260 Cl  0  5  0  0  0  0  0  0  0  0  0  0
M  CHG  1   1  -1
M  END
$$$$
AKG_A_304
scProtoss 10052612073D 1   1.00000     0.00000     0
Protoss beta schulze
 14 13  0  0  0  0            999 V2000
   -6.6350   63.5830   25.7400 O   0  0  0  0  0  0  0  0  0  0  0  0
   -6.9860   63.9350   27.9040 O   0  5  0  0  0  0  0  0  0  0  0  0
  -12.9650   66.1430   27.5340 O   0  0  0  0  0  0  0  0  0  0  0  0
  -10.9410   67.0550   27.6560 O   0  5  0  0  0  0  0  0  0  0  0  0
  -11.7830   63.7750   27.2920 O   0  0  0  0  0  0  0  0  0  0  0  0
   -8.9010   64.1020   26.3980 C   0  0  0  0  0  0  0  0  0  0  0  0
   -9.6070   64.7290   27.5240 C   0  0  0  0  0  0  0  0  0  0  0  0
   -7.3970   63.8540   26.7140 C   0  0  0  0  0  0  0  0  0  0  0  0
  -11.7230   66.0750   27.5330 C   0  0  0  0  0  0  0  0  0  0  0  0
  -11.1020   64.7640   27.4120 C   0  0  0  0  0  0  0  0  0  0  0  0
   -8.9682   64.7022   25.6010 H   0  0  0  0  0  0  0  0  0  0  0  0
   -9.3361   63.2253   26.1927 H   0  0  0  0  0  0  0  0  0  0  0  0
   -9.2823   65.6714   27.6045 H   0  0  0  0  0  0  0  0  0  0  0  0
   -9.3723   64.2235   28.3543 H   0  0  0  0  0  0  0  0  0  0  0  0
  1  8  2  0  0  0  0
  2  8  1  0  0  0  0
  3  9  2  0  0  0  0
  4  9  1  0  0  0  0
  5 10  2  0  0  0  0
  6  7  1  0  0  0  0
  6  8  1  0  0  0  0
  7 10  1  0  0  0  0
  9 10  1  0  0  0  0
  7 14  1  0  0  0  0
  7 13  1  0  0  0  0
  6 11  1  0  0  0  0
  6 12  1  0  0  0  0
M  CHG  2   2  -1   4  -1
M  END
$$$$
LYS_B_301
scProtoss 10052612073D 1   1.00000     0.00000     0
Protoss beta schulze
 25 24  0  0  0  0            999 V2000
  -10.9200   25.2720   -5.1850 N   0  3  0  0  0  0  0  0  0  0  0  0
  -10.4430   26.2490   -6.1500 C   0  0  2  0  0  0  0  0  0  0  0  0
  -11.6260   26.7800   -6.9440 C   0  0  0  0  0  0  0  0  0  0  0  0
  -11.4800   27.6500   -7.8260 O   0  0  0  0  0  0  0  0  0  0  0  0
   -9.3810   25.6350   -7.0780 C   0  0  0  0  0  0  0  0  0  0  0  0
   -7.9540   25.6600   -6.5230 C   0  0  0  0  0  0  0  0  0  0  0  0
   -6.9800   25.0230   -7.4860 C   0  0  0  0  0  0  0  0  0  0  0  0
   -5.5150   25.4400   -7.2020 C   0  0  0  0  0  0  0  0  0  0  0  0
   -4.9920   24.9450   -5.9140 N   0  3  0  0  0  0  0  0  0  0  0  0
  -12.7560   26.3580   -6.6950 O   0  5  0  0  0  0  0  0  0  0  0  0
  -11.1917   25.7395   -4.3438 H   0  0  0  0  0  0  0  0  0  0  0  0
  -11.7066   24.7850   -5.5647 H   0  0  0  0  0  0  0  0  0  0  0  0
  -10.0275   27.0102   -5.6521 H   0  0  0  0  0  0  0  0  0  0  0  0
   -9.3890   26.1429   -7.9394 H   0  0  0  0  0  0  0  0  0  0  0  0
   -9.6314   24.6823   -7.2504 H   0  0  0  0  0  0  0  0  0  0  0  0
   -7.9320   25.1587   -5.6580 H   0  0  0  0  0  0  0  0  0  0  0  0
   -7.6824   26.6094   -6.3651 H   0  0  0  0  0  0  0  0  0  0  0  0
   -7.2190   25.3012   -8.4163 H   0  0  0  0  0  0  0  0  0  0  0  0
   -7.0526   24.0288   -7.4064 H   0  0  0  0  0  0  0  0  0  0  0  0
   -5.4669   26.4388   -7.1985 H   0  0  0  0  0  0  0  0  0  0  0  0
   -4.9376   25.0810   -7.9353 H   0  0  0  0  0  0  0  0  0  0  0  0
   -4.0049   24.8028   -5.9876 H   0  0  0  0  0  0  0  0  0  0  0  0
   -5.1795   25.6171   -5.1977 H   0  0  0  0  0  0  0  0  0  0  0  0
   -5.4372   24.0796   -5.6839 H   0  0  0  0  0  0  0  0  0  0  0  0
  -10.1898   24.6194   -4.9827 H   0  0  0  0  0  0  0  0  0  0  0  0
  1  2  1  0  0  0  0
  2  5  1  0  0  0  0
  2  3  1  0  0  0  0
  5  6  1  0  0  0  0
  6  7  1  0  0  0  0
  7  8  1  0  0  0  0
  8  9  1  0  0  0  0
  3  4  2  0  0  0  0
  3 10  1  0  0  0  0
  1 11  1  0  0  0  0
  1 12  1  0  0  0  0
  2 13  1  0  0  0  0
  5 14  1  0  0  0  0
  5 15  1  0  0  0  0
  6 16  1  0  0  0  0
  6 17  1  0  0  0  0
  7 18  1  0  0  0  0
  7 19  1  0  0  0  0
  8 20  1  0  0  0  0
  8 21  1  0  0  0  0
  9 22  1  0  0  0  0
  9 23  1  0  0  0  0
  9 24  1  0  0  0  0
  1 25  1  0  0  0  0
M  CHG  3   1   1   9   1  10  -1
M  END
$$$$
CL_B_303
scProtoss 10052612073D 1   1.00000     0.00000     0
Protoss beta schulze
  1  0  0  0  0  0            999 V2000
   -8.2990   27.8860   -3.2530 Cl  0  5  0  0  0  0  0  0  0  0  0  0
M  CHG  1   1  -1
M  END
$$$$
AKG_B_304
scProtoss 10052612073D 1   1.00000     0.00000     0
Protoss beta schulze
 14 13  0  0  0  0            999 V2000
   -5.6360   34.8660   -8.6720 O   0  0  0  0  0  0  0  0  0  0  0  0
   -4.6590   35.8120   -6.8800 O   0  5  0  0  0  0  0  0  0  0  0  0
   -5.2300   30.0120   -7.2220 O   0  0  0  0  0  0  0  0  0  0  0  0
   -6.5080   29.3890   -5.5700 O   0  5  0  0  0  0  0  0  0  0  0  0
   -7.8850   31.7420   -5.8770 O   0  0  0  0  0  0  0  0  0  0  0  0
   -5.7800   33.7440   -6.5780 C   0  0  0  0  0  0  0  0  0  0  0  0
   -6.2610   32.6170   -7.3580 C   0  0  0  0  0  0  0  0  0  0  0  0
   -5.3280   34.8960   -7.4300 C   0  0  0  0  0  0  0  0  0  0  0  0
   -6.1520   30.2170   -6.4230 C   0  0  0  0  0  0  0  0  0  0  0  0
   -6.8630   31.5540   -6.4880 C   0  0  0  0  0  0  0  0  0  0  0  0
   -5.0089   33.4390   -6.0191 H   0  0  0  0  0  0  0  0  0  0  0  0
   -6.5194   34.0585   -5.9827 H   0  0  0  0  0  0  0  0  0  0  0  0
   -5.4943   32.2240   -7.8657 H   0  0  0  0  0  0  0  0  0  0  0  0
   -6.9553   32.9409   -8.0007 H   0  0  0  0  0  0  0  0  0  0  0  0
  1  8  2  0  0  0  0
  2  8  1  0  0  0  0
  3  9  2  0  0  0  0
  4  9  1  0  0  0  0
  5 10  2  0  0  0  0
  6  7  1  0  0  0  0
  6  8  1  0  0  0  0
  7 10  1  0  0  0  0
  9 10  1  0  0  0  0
  7 14  1  0  0  0  0
  7 13  1  0  0  0  0
  6 11  1  0  0  0  0
  6 12  1  0  0  0  0
M  CHG  2   2  -1   4  -1
M  END
$$$$
LYS_C_301
scProtoss 10052612073D 1   1.00000     0.00000     0
Protoss beta schulze
 25 24  0  0  0  0            999 V2000
  -25.4240   58.4890   -8.7090 N   0  3  0  0  0  0  0  0  0  0  0  0
  -26.1100   57.2020   -8.8230 C   0  0  2  0  0  0  0  0  0  0  0  0
  -25.3430   56.2580   -9.7510 C   0  0  0  0  0  0  0  0  0  0  0  0
  -24.2070   56.5470  -10.1530 O   0  0  0  0  0  0  0  0  0  0  0  0
  -27.5460   57.3950   -9.3220 C   0  0  0  0  0  0  0  0  0  0  0  0
  -28.6050   57.5620   -8.2380 C   0  0  0  0  0  0  0  0  0  0  0  0
  -29.9400   57.9580   -8.8830 C   0  0  0  0  0  0  0  0  0  0  0  0
  -31.0710   58.0330   -7.8590 C   0  0  0  0  0  0  0  0  0  0  0  0
  -30.8600   59.1340   -6.8520 N   0  3  0  0  0  0  0  0  0  0  0  0
  -25.8340   55.1800  -10.1000 O   0  5  0  0  0  0  0  0  0  0  0  0
  -24.7439   58.4406   -7.9775 H   0  0  0  0  0  0  0  0  0  0  0  0
  -24.9690   58.7019   -9.5737 H   0  0  0  0  0  0  0  0  0  0  0  0
  -26.1476   56.7857   -7.9145 H   0  0  0  0  0  0  0  0  0  0  0  0
  -27.7909   56.5954   -9.8704 H   0  0  0  0  0  0  0  0  0  0  0  0
  -27.5640   58.2124   -9.8978 H   0  0  0  0  0  0  0  0  0  0  0  0
  -28.3185   58.2763   -7.5995 H   0  0  0  0  0  0  0  0  0  0  0  0
  -28.7161   56.6991   -7.7449 H   0  0  0  0  0  0  0  0  0  0  0  0
  -30.1774   57.2782   -9.5769 H   0  0  0  0  0  0  0  0  0  0  0  0
  -29.8363   58.8536   -9.3156 H   0  0  0  0  0  0  0  0  0  0  0  0
  -31.1241   57.1599   -7.3743 H   0  0  0  0  0  0  0  0  0  0  0  0
  -31.9310   58.1992   -8.3415 H   0  0  0  0  0  0  0  0  0  0  0  0
  -31.7468   59.4757   -6.5410 H   0  0  0  0  0  0  0  0  0  0  0  0
  -30.3475   58.7775   -6.0708 H   0  0  0  0  0  0  0  0  0  0  0  0
  -30.3456   59.8794   -7.2760 H   0  0  0  0  0  0  0  0  0  0  0  0
  -26.0902   59.2043   -8.4979 H   0  0  0  0  0  0  0  0  0  0  0  0
  1  2  1  0  0  0  0
  2  5  1  0  0  0  0
  2  3  1  0  0  0  0
  5  6  1  0  0  0  0
  6  7  1  0  0  0  0
  7  8  1  0  0  0  0
  8  9  1  0  0  0  0
  3  4  2  0  0  0  0
  3 10  1  0  0  0  0
  1 11  1  0  0  0  0
  1 12  1  0  0  0  0
  2 13  1  0  0  0  0
  5 14  1  0  0  0  0
  5 15  1  0  0  0  0
  6 16  1  0  0  0  0
  6 17  1  0  0  0  0
  7 18  1  0  0  0  0
  7 19  1  0  0  0  0
  8 20  1  0  0  0  0
  8 21  1  0  0  0  0
  9 22  1  0  0  0  0
  9 23  1  0  0  0  0
  9 24  1  0  0  0  0
  1 25  1  0  0  0  0
M  CHG  3   1   1   9   1  10  -1
M  END
$$$$
CL_C_303
scProtoss 10052612073D 1   1.00000     0.00000     0
Protoss beta schulze
  1  0  0  0  0  0            999 V2000
  -26.6110   57.0580   -4.9330 Cl  0  5  0  0  0  0  0  0  0  0  0  0
M  CHG  1   1  -1
M  END
$$$$
AKG_C_304
scProtoss 10052612073D 1   1.00000     0.00000     0
Protoss beta schulze
 14 13  0  0  0  0            999 V2000
  -30.8730   48.7910   -5.5510 O   0  0  0  0  0  0  0  0  0  0  0  0
  -30.7010   48.5770   -3.3230 O   0  5  0  0  0  0  0  0  0  0  0  0
  -30.8970   53.7060   -6.1700 O   0  0  0  0  0  0  0  0  0  0  0  0
  -29.0430   54.7670   -5.6220 O   0  5  0  0  0  0  0  0  0  0  0  0
  -27.7750   52.4040   -5.2480 O   0  0  0  0  0  0  0  0  0  0  0  0
  -30.1800   50.7340   -4.2530 C   0  0  0  0  0  0  0  0  0  0  0  0
  -29.7890   51.2460   -5.5830 C   0  0  0  0  0  0  0  0  0  0  0  0
  -30.6170   49.2590   -4.3860 C   0  0  0  0  0  0  0  0  0  0  0  0
  -29.6930   53.7360   -5.7900 C   0  0  0  0  0  0  0  0  0  0  0  0
  -28.9790   52.4300   -5.5120 C   0  0  0  0  0  0  0  0  0  0  0  0
  -30.9397   51.2771   -3.8955 H   0  0  0  0  0  0  0  0  0  0  0  0
  -29.4019   50.7974   -3.6281 H   0  0  0  0  0  0  0  0  0  0  0  0
  -30.6186   51.4579   -6.0995 H   0  0  0  0  0  0  0  0  0  0  0  0
  -29.2724   50.5344   -6.0592 H   0  0  0  0  0  0  0  0  0  0  0  0
  1  8  2  0  0  0  0
  2  8  1  0  0  0  0
  3  9  2  0  0  0  0
  4  9  1  0  0  0  0
  5 10  2  0  0  0  0
  6  7  1  0  0  0  0
  6  8  1  0  0  0  0
  7 10  1  0  0  0  0
  9 10  1  0  0  0  0
  7 14  1  0  0  0  0
  7 13  1  0  0  0  0
  6 11  1  0  0  0  0
  6 12  1  0  0  0  0
M  CHG  2   2  -1   4  -1
M  END
$$$$
LYS_D_301
scProtoss 10052612073D 1   1.00000     0.00000     0
Protoss beta schulze
 25 24  0  0  0  0            999 V2000
   -0.1190   34.0290   32.1300 N   0  3  0  0  0  0  0  0  0  0  0  0
   -1.1790   34.3700   33.0770 C   0  0  2  0  0  0  0  0  0  0  0  0
   -0.9240   35.7310   33.7380 C   0  0  0  0  0  0  0  0  0  0  0  0
    0.1030   36.4060   33.5190 O   0  0  0  0  0  0  0  0  0  0  0  0
   -1.3230   33.2580   34.1350 C   0  0  0  0  0  0  0  0  0  0  0  0
   -2.2710   32.1100   33.7090 C   0  0  0  0  0  0  0  0  0  0  0  0
   -2.3850   30.9890   34.7790 C   0  0  0  0  0  0  0  0  0  0  0  0
   -3.5890   30.1140   34.4900 C   0  0  0  0  0  0  0  0  0  0  0  0
   -3.3390   29.2440   33.2880 N   0  3  0  0  0  0  0  0  0  0  0  0
   -1.7580   36.2050   34.5250 O   0  5  0  0  0  0  0  0  0  0  0  0
   -0.3280   34.4288   31.2376 H   0  0  0  0  0  0  0  0  0  0  0  0
    0.7527   34.3902   32.4612 H   0  0  0  0  0  0  0  0  0  0  0  0
   -2.0393   34.4284   32.5705 H   0  0  0  0  0  0  0  0  0  0  0  0
   -1.6798   33.6663   34.9752 H   0  0  0  0  0  0  0  0  0  0  0  0
   -0.4179   32.8708   34.3108 H   0  0  0  0  0  0  0  0  0  0  0  0
   -1.9240   31.7079   32.8617 H   0  0  0  0  0  0  0  0  0  0  0  0
   -3.1814   32.4913   33.5486 H   0  0  0  0  0  0  0  0  0  0  0  0
   -2.4869   31.4038   35.6832 H   0  0  0  0  0  0  0  0  0  0  0  0
   -1.5569   30.4288   34.7607 H   0  0  0  0  0  0  0  0  0  0  0  0
   -4.3830   30.6960   34.3144 H   0  0  0  0  0  0  0  0  0  0  0  0
   -3.7705   29.5331   35.2835 H   0  0  0  0  0  0  0  0  0  0  0  0
   -3.8514   28.3904   33.3819 H   0  0  0  0  0  0  0  0  0  0  0  0
   -3.6373   29.7227   32.4622 H   0  0  0  0  0  0  0  0  0  0  0  0
   -2.3622   29.0407   33.2210 H   0  0  0  0  0  0  0  0  0  0  0  0
   -0.0565   33.0347   32.0434 H   0  0  0  0  0  0  0  0  0  0  0  0
  1  2  1  0  0  0  0
  2  5  1  0  0  0  0
  2  3  1  0  0  0  0
  5  6  1  0  0  0  0
  6  7  1  0  0  0  0
  7  8  1  0  0  0  0
  8  9  1  0  0  0  0
  3  4  2  0  0  0  0
  3 10  1  0  0  0  0
  1 11  1  0  0  0  0
  1 12  1  0  0  0  0
  2 13  1  0  0  0  0
  5 14  1  0  0  0  0
  5 15  1  0  0  0  0
  6 16  1  0  0  0  0
  6 17  1  0  0  0  0
  7 18  1  0  0  0  0
  7 19  1  0  0  0  0
  8 20  1  0  0  0  0
  8 21  1  0  0  0  0
  9 22  1  0  0  0  0
  9 23  1  0  0  0  0
  9 24  1  0  0  0  0
  1 25  1  0  0  0  0
M  CHG  3   1   1   9   1  10  -1
M  END
$$$$
CL_D_303
scProtoss 10052612073D 1   1.00000     0.00000     0
Protoss beta schulze
  1  0  0  0  0  0            999 V2000
   -3.6330   33.2170   30.1770 Cl  0  5  0  0  0  0  0  0  0  0  0  0
M  CHG  1   1  -1
M  END
$$$$
AKG_D_304
scProtoss 10052612073D 1   1.00000     0.00000     0
Protoss beta schulze
 14 13  0  0  0  0            999 V2000
  -12.3250   35.5920   33.0470 O   0  0  0  0  0  0  0  0  0  0  0  0
  -11.1230   35.8980   34.8750 O   0  5  0  0  0  0  0  0  0  0  0  0
   -5.8060   33.1950   32.7890 O   0  0  0  0  0  0  0  0  0  0  0  0
   -7.6230   32.4450   33.8240 O   0  5  0  0  0  0  0  0  0  0  0  0
   -7.2990   35.4140   32.0790 O   0  0  0  0  0  0  0  0  0  0  0  0
  -10.0720   34.9150   32.9600 C   0  0  0  0  0  0  0  0  0  0  0  0
   -8.8300   34.9990   33.7620 C   0  0  0  0  0  0  0  0  0  0  0  0
  -11.2490   35.5160   33.6860 C   0  0  0  0  0  0  0  0  0  0  0  0
   -6.9770   33.3280   33.1960 C   0  0  0  0  0  0  0  0  0  0  0  0
   -7.6760   34.6640   32.9470 C   0  0  0  0  0  0  0  0  0  0  0  0
  -10.2677   33.9537   32.7661 H   0  0  0  0  0  0  0  0  0  0  0  0
   -9.9361   35.4074   32.1003 H   0  0  0  0  0  0  0  0  0  0  0  0
   -8.8889   34.3591   34.5282 H   0  0  0  0  0  0  0  0  0  0  0  0
   -8.7266   35.9299   34.1123 H   0  0  0  0  0  0  0  0  0  0  0  0
  1  8  2  0  0  0  0
  2  8  1  0  0  0  0
  3  9  2  0  0  0  0
  4  9  1  0  0  0  0
  5 10  2  0  0  0  0
  6  7  1  0  0  0  0
  6  8  1  0  0  0  0
  7 10  1  0  0  0  0
  9 10  1  0  0  0  0
  7 14  1  0  0  0  0
  7 13  1  0  0  0  0
  6 11  1  0  0  0  0
  6 12  1  0  0  0  0
M  CHG  2   2  -1   4  -1
M  END
$$$$
